<?xml version="1.0" encoding="UTF-8"?>

<!-- generated on 2024-06-10 21:08:11 by Eclipse SUMO netedit Version 1.20.0
<configuration xmlns:xsi="http://www.w3.org/2001/XMLSchema-instance" xsi:noNamespaceSchemaLocation="http://sumo.dlr.de/xsd/neteditConfiguration.xsd">

    <input>
        <sumocfg-file value="C:\Graduation_Project\QNQ_SUMO\xml\sumo_config.sumocfg"/>
        <route-files value="C:\Graduation_Project\QNQ_SUMO\xml\sumo.rou.xml"/>
        <sumo-net-file value="C:\Graduation_Project\QNQ_SUMO\xml\SUMO_network.net.xml"/>
    </input>

    <output>
        <tls-file value="C:\Graduation_Project\QNQ_SUMO\TLS.xml"/>
        <output-file value="C:\Graduation_Project\QNQ_SUMO\xml\SUMO_network.net.xml"/>
    </output>

    <processing>
        <geometry.min-radius.fix.railways value="false"/>
        <geometry.max-grade.fix value="false"/>
        <offset.disable-normalization value="true"/>
        <lefthand value="0"/>
    </processing>

    <junctions>
        <no-turnarounds value="true"/>
        <junctions.corner-detail value="5"/>
        <junctions.limit-turn-speed value="5.50"/>
        <rectangular-lane-cut value="0"/>
    </junctions>

    <pedestrian>
        <walkingareas value="0"/>
    </pedestrian>

</configuration>
-->

<net version="1.20" junctionCornerDetail="5" limitTurnSpeed="5.50" xmlns:xsi="http://www.w3.org/2001/XMLSchema-instance" xsi:noNamespaceSchemaLocation="http://sumo.dlr.de/xsd/net_file.xsd">

    <location netOffset="0.00,0.00" convBoundary="-100.00,-100.00,100.00,100.00" origBoundary="-10000000000.00,-10000000000.00,10000000000.00,10000000000.00" projParameter="!"/>

    <edge id=":J3_0" function="internal">
        <lane id=":J3_0_0" index="0" speed="6.51" length="9.03" shape="-8.00,13.60 -8.35,11.15 -9.40,9.40 -11.15,8.35 -13.60,8.00"/>
    </edge>
    <edge id=":J3_1" function="internal">
        <lane id=":J3_1_0" index="0" speed="13.89" length="27.20" shape="-8.00,13.60 -8.00,-13.60"/>
        <lane id=":J3_1_1" index="1" speed="13.89" length="27.20" shape="-4.80,13.60 -4.80,-13.60"/>
        <lane id=":J3_1_2" index="2" speed="13.89" length="27.20" shape="-1.60,13.60 -1.60,-13.60"/>
    </edge>
    <edge id=":J3_4" function="internal">
        <lane id=":J3_4_0" index="0" speed="10.36" length="24.51" shape="-1.60,13.60 -0.65,6.95 2.20,2.20 6.95,-0.65 13.60,-1.60"/>
    </edge>
    <edge id=":J3_5" function="internal">
        <lane id=":J3_5_0" index="0" speed="6.51" length="9.03" shape="13.60,8.00 11.15,8.35 9.40,9.40 8.35,11.15 8.00,13.60"/>
    </edge>
    <edge id=":J3_6" function="internal">
        <lane id=":J3_6_0" index="0" speed="13.89" length="27.20" shape="13.60,8.00 -13.60,8.00"/>
        <lane id=":J3_6_1" index="1" speed="13.89" length="27.20" shape="13.60,4.80 -13.60,4.80"/>
        <lane id=":J3_6_2" index="2" speed="13.89" length="27.20" shape="13.60,1.60 -13.60,1.60"/>
    </edge>
    <edge id=":J3_9" function="internal">
        <lane id=":J3_9_0" index="0" speed="10.36" length="24.51" shape="13.60,1.60 6.95,0.65 2.20,-2.20 -0.65,-6.95 -1.60,-13.60"/>
    </edge>
    <edge id=":J3_10" function="internal">
        <lane id=":J3_10_0" index="0" speed="6.51" length="9.03" shape="8.00,-13.60 8.35,-11.15 9.40,-9.40 11.15,-8.35 13.60,-8.00"/>
    </edge>
    <edge id=":J3_11" function="internal">
        <lane id=":J3_11_0" index="0" speed="13.89" length="27.20" shape="8.00,-13.60 8.00,13.60"/>
        <lane id=":J3_11_1" index="1" speed="13.89" length="27.20" shape="4.80,-13.60 4.80,13.60"/>
        <lane id=":J3_11_2" index="2" speed="13.89" length="27.20" shape="1.60,-13.60 1.60,13.60"/>
    </edge>
    <edge id=":J3_14" function="internal">
        <lane id=":J3_14_0" index="0" speed="10.36" length="24.51" shape="1.60,-13.60 0.65,-6.95 -2.20,-2.20 -6.95,0.65 -13.60,1.60"/>
    </edge>
    <edge id=":J3_15" function="internal">
        <lane id=":J3_15_0" index="0" speed="6.51" length="9.03" shape="-13.60,-8.00 -11.15,-8.35 -9.40,-9.40 -8.35,-11.15 -8.00,-13.60"/>
    </edge>
    <edge id=":J3_16" function="internal">
        <lane id=":J3_16_0" index="0" speed="13.89" length="27.20" shape="-13.60,-8.00 13.60,-8.00"/>
        <lane id=":J3_16_1" index="1" speed="13.89" length="27.20" shape="-13.60,-4.80 13.60,-4.80"/>
        <lane id=":J3_16_2" index="2" speed="13.89" length="27.20" shape="-13.60,-1.60 13.60,-1.60"/>
    </edge>
    <edge id=":J3_19" function="internal">
        <lane id=":J3_19_0" index="0" speed="10.36" length="24.51" shape="-13.60,-1.60 -6.95,-0.65 -2.20,2.20 0.65,6.95 1.60,13.60"/>
    </edge>

    <edge id="-E1" from="J3" to="J2" priority="-1">
        <lane id="-E1_0" index="0" speed="13.89" length="86.40" shape="8.00,13.60 8.00,100.00"/>
        <lane id="-E1_1" index="1" speed="13.89" length="86.40" shape="4.80,13.60 4.80,100.00"/>
        <lane id="-E1_2" index="2" speed="13.89" length="86.40" shape="1.60,13.60 1.60,100.00"/>
    </edge>
    <edge id="-E2" from="J4" to="J3" priority="-1">
        <lane id="-E2_0" index="0" speed="13.89" length="86.40" shape="100.00,8.00 13.60,8.00"/>
        <lane id="-E2_1" index="1" speed="13.89" length="86.40" shape="100.00,4.80 13.60,4.80"/>
        <lane id="-E2_2" index="2" speed="13.89" length="86.40" shape="100.00,1.60 13.60,1.60"/>
    </edge>
    <edge id="-E3" from="J5" to="J3" priority="-1">
        <lane id="-E3_0" index="0" speed="13.89" length="86.40" shape="8.00,-100.00 8.00,-13.60"/>
        <lane id="-E3_1" index="1" speed="13.89" length="86.40" shape="4.80,-100.00 4.80,-13.60"/>
        <lane id="-E3_2" index="2" speed="13.89" length="86.40" shape="1.60,-100.00 1.60,-13.60"/>
    </edge>
    <edge id="-E4" from="J6" to="J3" priority="-1">
        <lane id="-E4_0" index="0" speed="13.89" length="86.40" shape="-100.00,-8.00 -13.60,-8.00"/>
        <lane id="-E4_1" index="1" speed="13.89" length="86.40" shape="-100.00,-4.80 -13.60,-4.80"/>
        <lane id="-E4_2" index="2" speed="13.89" length="86.40" shape="-100.00,-1.60 -13.60,-1.60"/>
    </edge>
    <edge id="E1" from="J2" to="J3" priority="-1">
        <lane id="E1_0" index="0" speed="13.89" length="86.40" shape="-8.00,100.00 -8.00,13.60"/>
        <lane id="E1_1" index="1" speed="13.89" length="86.40" shape="-4.80,100.00 -4.80,13.60"/>
        <lane id="E1_2" index="2" speed="13.89" length="86.40" shape="-1.60,100.00 -1.60,13.60"/>
    </edge>
    <edge id="E2" from="J3" to="J4" priority="-1">
        <lane id="E2_0" index="0" speed="13.89" length="86.40" shape="13.60,-8.00 100.00,-8.00"/>
        <lane id="E2_1" index="1" speed="13.89" length="86.40" shape="13.60,-4.80 100.00,-4.80"/>
        <lane id="E2_2" index="2" speed="13.89" length="86.40" shape="13.60,-1.60 100.00,-1.60"/>
    </edge>
    <edge id="E3" from="J3" to="J5" priority="-1">
        <lane id="E3_0" index="0" speed="13.89" length="86.40" shape="-8.00,-13.60 -8.00,-100.00"/>
        <lane id="E3_1" index="1" speed="13.89" length="86.40" shape="-4.80,-13.60 -4.80,-100.00"/>
        <lane id="E3_2" index="2" speed="13.89" length="86.40" shape="-1.60,-13.60 -1.60,-100.00"/>
    </edge>
    <edge id="E4" from="J3" to="J6" priority="-1">
        <lane id="E4_0" index="0" speed="13.89" length="86.40" shape="-13.60,8.00 -100.00,8.00"/>
        <lane id="E4_1" index="1" speed="13.89" length="86.40" shape="-13.60,4.80 -100.00,4.80"/>
        <lane id="E4_2" index="2" speed="13.89" length="86.40" shape="-13.60,1.60 -100.00,1.60"/>
    </edge>

    <tlLogic id="J3" type="static" programID="0" offset="0">
        <phase duration="42" state="GGGGGrrrrrrrrrrrrrrr"/>
        <phase duration="3"  state="yyyyyrrrrrrrrrrrrrrr"/>
        <phase duration="42" state="rrrrrGGGGgrrrrrrrrrr"/>
        <phase duration="2"  state="rrrrryyyyyrrrrrrrrrr"/>
        <phase duration="42" state="rrrrrrrrrrgGgggrrrrr"/>
        <phase duration="3"  state="rrrrrrrrrryyyyyrrrrr"/>
        <phase duration="42" state="rrrrrrrrrrrrrrrggggg"/>
        <phase duration="3"  state="rrrrrrrrrrrrrrryyyyy"/>
    </tlLogic>

    <junction id="J2" type="dead_end" x="0.00" y="100.00" incLanes="-E1_0 -E1_1 -E1_2" intLanes="" shape="0.00,100.00 9.60,100.00 0.00,100.00"/>
    <junction id="J3" type="traffic_light" x="0.00" y="0.00" incLanes="E1_0 E1_1 E1_2 -E2_0 -E2_1 -E2_2 -E3_0 -E3_1 -E3_2 -E4_0 -E4_1 -E4_2" intLanes=":J3_0_0 :J3_1_0 :J3_1_1 :J3_1_2 :J3_4_0 :J3_5_0 :J3_6_0 :J3_6_1 :J3_6_2 :J3_9_0 :J3_10_0 :J3_11_0 :J3_11_1 :J3_11_2 :J3_14_0 :J3_15_0 :J3_16_0 :J3_16_1 :J3_16_2 :J3_19_0" shape="-9.60,13.60 9.60,13.60 10.04,11.38 10.60,10.60 11.38,10.04 12.38,9.71 13.60,9.60 13.60,-9.60 11.38,-10.04 10.60,-10.60 10.04,-11.38 9.71,-12.38 9.60,-13.60 -9.60,-13.60 -10.04,-11.38 -10.60,-10.60 -11.38,-10.04 -12.38,-9.71 -13.60,-9.60 -13.60,9.60 -11.38,10.04 -10.60,10.60 -10.04,11.38 -9.71,12.38">
        <request index="0"  response="00000000000000000000" foes="00000000000111000000" cont="0"/>
        <request index="1"  response="00000000000000000000" foes="11111100001111000000" cont="0"/>
        <request index="2"  response="00000000000000000000" foes="11111100001111000000" cont="0"/>
        <request index="3"  response="00000000000000000000" foes="11111100001111000000" cont="0"/>
        <request index="4"  response="00000011100000000000" foes="11110011101111000000" cont="0"/>
        <request index="5"  response="00000011100000000000" foes="00000011100000000000" cont="0"/>
        <request index="6"  response="00000111100000011111" foes="10000111100000011111" cont="0"/>
        <request index="7"  response="00000111100000011111" foes="10000111100000011111" cont="0"/>
        <request index="8"  response="00000111100000011111" foes="10000111100000011111" cont="0"/>
        <request index="9"  response="01110111100000011110" foes="01110111100000011110" cont="0"/>
        <request index="10" response="00000000000000000000" foes="01110000000000000000" cont="0"/>
        <request index="11" response="00000000000000000000" foes="11110000001111110000" cont="0"/>
        <request index="12" response="00000000000000000000" foes="11110000001111110000" cont="0"/>
        <request index="13" response="00000000000000000000" foes="11110000001111110000" cont="0"/>
        <request index="14" response="00000000000000001110" foes="11110000001111001110" cont="0"/>
        <request index="15" response="00000000000000001110" foes="00000000000000001110" cont="0"/>
        <request index="16" response="00000111110000011110" foes="00000111111000011110" cont="0"/>
        <request index="17" response="00000111110000011110" foes="00000111111000011110" cont="0"/>
        <request index="18" response="00000111110000011110" foes="00000111111000011110" cont="0"/>
        <request index="19" response="00000111100111011110" foes="00000111100111011110" cont="0"/>
    </junction>
    <junction id="J4" type="dead_end" x="100.00" y="0.00" incLanes="E2_0 E2_1 E2_2" intLanes="" shape="100.00,0.00 100.00,-9.60 100.00,0.00"/>
    <junction id="J5" type="dead_end" x="0.00" y="-100.00" incLanes="E3_0 E3_1 E3_2" intLanes="" shape="0.00,-100.00 -9.60,-100.00 0.00,-100.00"/>
    <junction id="J6" type="dead_end" x="-100.00" y="0.00" incLanes="E4_0 E4_1 E4_2" intLanes="" shape="-100.00,0.00 -100.00,9.60 -100.00,0.00"/>

    <connection from="-E2" to="-E1" fromLane="0" toLane="0" via=":J3_5_0" tl="J3" linkIndex="5" dir="r" state="o"/>
    <connection from="-E2" to="E4" fromLane="0" toLane="0" via=":J3_6_0" tl="J3" linkIndex="6" dir="s" state="o"/>
    <connection from="-E2" to="E4" fromLane="1" toLane="1" via=":J3_6_1" tl="J3" linkIndex="7" dir="s" state="o"/>
    <connection from="-E2" to="E4" fromLane="2" toLane="2" via=":J3_6_2" tl="J3" linkIndex="8" dir="s" state="o"/>
    <connection from="-E2" to="E3" fromLane="2" toLane="2" via=":J3_9_0" tl="J3" linkIndex="9" dir="l" state="o"/>
    <connection from="-E3" to="E2" fromLane="0" toLane="0" via=":J3_10_0" tl="J3" linkIndex="10" dir="r" state="O"/>
    <connection from="-E3" to="-E1" fromLane="0" toLane="0" via=":J3_11_0" tl="J3" linkIndex="11" dir="s" state="O"/>
    <connection from="-E3" to="-E1" fromLane="1" toLane="1" via=":J3_11_1" tl="J3" linkIndex="12" dir="s" state="O"/>
    <connection from="-E3" to="-E1" fromLane="2" toLane="2" via=":J3_11_2" tl="J3" linkIndex="13" dir="s" state="O"/>
    <connection from="-E3" to="E4" fromLane="2" toLane="2" via=":J3_14_0" tl="J3" linkIndex="14" dir="l" state="o"/>
    <connection from="-E4" to="E3" fromLane="0" toLane="0" via=":J3_15_0" tl="J3" linkIndex="15" dir="r" state="o"/>
    <connection from="-E4" to="E2" fromLane="0" toLane="0" via=":J3_16_0" tl="J3" linkIndex="16" dir="s" state="o"/>
    <connection from="-E4" to="E2" fromLane="1" toLane="1" via=":J3_16_1" tl="J3" linkIndex="17" dir="s" state="o"/>
    <connection from="-E4" to="E2" fromLane="2" toLane="2" via=":J3_16_2" tl="J3" linkIndex="18" dir="s" state="o"/>
    <connection from="-E4" to="-E1" fromLane="2" toLane="2" via=":J3_19_0" tl="J3" linkIndex="19" dir="l" state="o"/>
    <connection from="E1" to="E4" fromLane="0" toLane="0" via=":J3_0_0" tl="J3" linkIndex="0" dir="r" state="O"/>
    <connection from="E1" to="E3" fromLane="0" toLane="0" via=":J3_1_0" tl="J3" linkIndex="1" dir="s" state="O"/>
    <connection from="E1" to="E3" fromLane="1" toLane="1" via=":J3_1_1" tl="J3" linkIndex="2" dir="s" state="O"/>
    <connection from="E1" to="E3" fromLane="2" toLane="2" via=":J3_1_2" tl="J3" linkIndex="3" dir="s" state="O"/>
    <connection from="E1" to="E2" fromLane="2" toLane="2" via=":J3_4_0" tl="J3" linkIndex="4" dir="l" state="o"/>

    <connection from=":J3_0" to="E4" fromLane="0" toLane="0" dir="r" state="M"/>
    <connection from=":J3_1" to="E3" fromLane="0" toLane="0" dir="s" state="M"/>
    <connection from=":J3_1" to="E3" fromLane="1" toLane="1" dir="s" state="M"/>
    <connection from=":J3_1" to="E3" fromLane="2" toLane="2" dir="s" state="M"/>
    <connection from=":J3_4" to="E2" fromLane="0" toLane="2" dir="l" state="M"/>
    <connection from=":J3_5" to="-E1" fromLane="0" toLane="0" dir="r" state="M"/>
    <connection from=":J3_6" to="E4" fromLane="0" toLane="0" dir="s" state="M"/>
    <connection from=":J3_6" to="E4" fromLane="1" toLane="1" dir="s" state="M"/>
    <connection from=":J3_6" to="E4" fromLane="2" toLane="2" dir="s" state="M"/>
    <connection from=":J3_9" to="E3" fromLane="0" toLane="2" dir="l" state="M"/>
    <connection from=":J3_10" to="E2" fromLane="0" toLane="0" dir="r" state="M"/>
    <connection from=":J3_11" to="-E1" fromLane="0" toLane="0" dir="s" state="M"/>
    <connection from=":J3_11" to="-E1" fromLane="1" toLane="1" dir="s" state="M"/>
    <connection from=":J3_11" to="-E1" fromLane="2" toLane="2" dir="s" state="M"/>
    <connection from=":J3_14" to="E4" fromLane="0" toLane="2" dir="l" state="M"/>
    <connection from=":J3_15" to="E3" fromLane="0" toLane="0" dir="r" state="M"/>
    <connection from=":J3_16" to="E2" fromLane="0" toLane="0" dir="s" state="M"/>
    <connection from=":J3_16" to="E2" fromLane="1" toLane="1" dir="s" state="M"/>
    <connection from=":J3_16" to="E2" fromLane="2" toLane="2" dir="s" state="M"/>
    <connection from=":J3_19" to="-E1" fromLane="0" toLane="2" dir="l" state="M"/>

</net>
