<?xml version="1.0" encoding="UTF-8"?>

<!-- generated on 2024-06-10 21:08:11 by Eclipse SUMO sumo Version 1.20.0
-->

<configuration xmlns:xsi="http://www.w3.org/2001/XMLSchema-instance" xsi:noNamespaceSchemaLocation="http://sumo.dlr.de/xsd/sumoConfiguration.xsd">

    <input>
        <net-file value="SUMO_network.net.xml"/>
        <route-files value="sumo.rou.xml"/>
    </input>

</configuration>
